Alim_Meia_Ponte_5_ORIGINAL/SegmentosMT_2021126072_5002086_NTMBSR1PVTTR.dss
! Criação da seção de segmentos MT
New "Line.SMT_53072474" phases=3 bus1="82021285002086.1.2.3" bus2="82021835002086.1.2.3" linecode="33-31M_3" length=0.034893 units=km
New "Line.SMT_53072475" phases=3 bus1="82021855002086.1.2.3" bus2="82021885002086.1.2.3" linecode="1-31M_3" length=0.047104 units=km
New "Line.SMT_53072476" phases=3 bus1="82021925002086.1.2.3" bus2="82021905002086.1.2.3" linecode="30-31M_3" length=0.026419 units=km
New "Line.SMT_53072477" phases=3 bus1="82021885002086.1.2.3" bus2="82021925002086.1.2.3" linecode="1-31M_3" length=0.027015 units=km
New "Line.SMT_53072478" phases=3 bus1="82021925002086.1.2.3" bus2="82021915002086.1.2.3" linecode="1-31M_3" length=0.009647 units=km
New "Line.SMT_53072479" phases=3 bus1="82021915002086.1.2.3" bus2="95217355002086.1.2.3" linecode="1-31M_3" length=0.005088 units=km
New "Line.SMT_53072480" phases=3 bus1="82021955002086.1.2.3" bus2="82021975002086.1.2.3" linecode="1-31M_3" length=0.04122 units=km
New "Line.SMT_53072481" phases=3 bus1="82021935002086.1.2.3" bus2="82021955002086.1.2.3" linecode="1-31M_3" length=0.06012 units=km
New "Line.SMT_53072482" phases=3 bus1="82021975002086.1.2.3" bus2="82021995002086.1.2.3" linecode="1-31M_3" length=0.042612 units=km
New "Line.SMT_53072483" phases=3 bus1="82021975002086.1.2.3" bus2="82022045002086.1.2.3" linecode="33-31M_3" length=0.028641 units=km
New "Line.SMT_53072484" phases=3 bus1="82022045002086B.1.2.3" bus2="82022055002086.1.2.3" linecode="33-31M_3" length=0.046647 units=km
New "Line.SMT_53072485" phases=3 bus1="82022055002086.1.2.3" bus2="82022225002086.1.2.3" linecode="33-31M_3" length=0.035259 units=km
New "Line.SMT_53072486" phases=3 bus1="82022225002086.1.2.3" bus2="82023945002086.1.2.3" linecode="33-31M_3" length=0.035773 units=km
New "Line.SMT_53072487" phases=3 bus1="82023945002086.1.2.3" bus2="82023955002086.1.2.3" linecode="33-31M_3" length=0.044015 units=km
New "Line.SMT_53072488" phases=3 bus1="82023955002086.1.2.3" bus2="82024125002086.1.2.3" linecode="33-31M_3" length=0.03717 units=km
New "Line.SMT_53072489" phases=3 bus1="82024125002086.1.2.3" bus2="82024135002086.1.2.3" linecode="33-31M_3" length=0.040864 units=km
New "Line.SMT_53072490" phases=3 bus1="82024135002086.1.2.3" bus2="82024145002086.1.2.3" linecode="33-31M_3" length=0.038938 units=km
New "Line.SMT_53072491" phases=3 bus1="82024145002086.1.2.3" bus2="82024315002086.1.2.3" linecode="33-31M_3" length=0.045787 units=km
New "Line.SMT_53072492" phases=3 bus1="82024315002086.1.2.3" bus2="82024325002086.1.2.3" linecode="33-31M_3" length=0.030487 units=km
New "Line.SMT_53072493" phases=3 bus1="82019985002086.1.2.3" bus2="82019965002086.1.2.3" linecode="33-31M_3" length=0.054094 units=km
New "Line.SMT_53072494" phases=3 bus1="82020015002086.1.2.3" bus2="82019985002086.1.2.3" linecode="33-31M_3" length=0.026527 units=km
New "Line.SMT_53072495" phases=3 bus1="82020025002086.1.2.3" bus2="82020015002086.1.2.3" linecode="33-31M_3" length=0.027438 units=km
New "Line.SMT_53072496" phases=3 bus1="82020055002086.1.2.3" bus2="82020025002086.1.2.3" linecode="33-31M_3" length=0.040245 units=km
New "Line.SMT_53072497" phases=3 bus1="82020075002086.1.2.3" bus2="82020055002086.1.2.3" linecode="33-31M_3" length=0.054436 units=km
New "Line.SMT_53072498" phases=3 bus1="82020185002086.1.2.3" bus2="82020175002086.1.2.3" linecode="33-31M_3" length=0.042594 units=km
New "Line.SMT_53072499" phases=3 bus1="82020195002086.1.2.3" bus2="82020185002086.1.2.3" linecode="33-31M_3" length=0.0311 units=km
New "Line.SMT_53072500" phases=3 bus1="82024515002086.1.2.3" bus2="81463945002086.1.2.3" linecode="1-31M_3" length=0.026481 units=km
New "Line.SMT_53072501" phases=3 bus1="82020405002086.1.2.3" bus2="82020195002086.1.2.3" linecode="33-31M_3" length=0.044543 units=km
New "Line.SMT_53072502" phases=3 bus1="82020415002086.1.2.3" bus2="82020405002086.1.2.3" linecode="33-31M_3" length=0.036303 units=km
New "Line.SMT_53072503" phases=3 bus1="82020525002086.1.2.3" bus2="82020075002086.1.2.3" linecode="33-31M_3" length=0.03799 units=km
New "Line.SMT_53072504" phases=3 bus1="82020555002086.1.2.3" bus2="82020525002086.1.2.3" linecode="33-31M_3" length=0.041624 units=km
New "Line.SMT_53072505" phases=3 bus1="82020565002086B.1.2.3" bus2="82020555002086.1.2.3" linecode="33-31M_3" length=0.0311 units=km
New "Line.SMT_53072506" phases=3 bus1="82020675002086.1.2.3" bus2="82020415002086.1.2.3" linecode="33-31M_3" length=0.040864 units=km
New "Line.SMT_53072507" phases=3 bus1="82020685002086B.1.2.3" bus2="82020675002086.1.2.3" linecode="33-31M_3" length=0.031583 units=km
New "Line.SMT_53072508" phases=3 bus1="82024585002086.1.2.3" bus2="82024615002086.1.2.3" linecode="1-31M_3" length=0.055766 units=km
New "Line.SMT_53072509" phases=3 bus1="82024615002086.1.2.3" bus2="82024625002086.1.2.3" linecode="1-31M_3" length=0.038844 units=km
New "Line.SMT_53072510" phases=3 bus1="82024625002086.1.2.3" bus2="82024635002086.1.2.3" linecode="1-31M_3" length=0.026083 units=km
New "Line.SMT_53072511" phases=3 bus1="82024635002086.1.2.3" bus2="82036795002086.1.2.3" linecode="1-31M_3" length=0.042841 units=km
New "Line.SMT_53072512" phases=3 bus1="82025745002086.1.2.3" bus2="82025735002086.1.2.3" linecode="33-31M_3" length=0.037848 units=km
New "Line.SMT_53072513" phases=3 bus1="82025755002086.1.2.3" bus2="82025745002086.1.2.3" linecode="33-31M_3" length=0.031501 units=km
New "Line.SMT_53072514" phases=3 bus1="82025905002086.1.2.3" bus2="82025915002086.1.2.3" linecode="33-31M_3" length=0.036257 units=km
New "Line.SMT_53072515" phases=3 bus1="82025915002086.1.2.3" bus2="82025755002086.1.2.3" linecode="33-31M_3" length=0.041131 units=km
New "Line.SMT_53072516" phases=3 bus1="82025985002086.1.2.3" bus2="82025905002086.1.2.3" linecode="33-31M_3" length=0.050842 units=km
New "Line.SMT_53072517" phases=3 bus1="82025995002086.1.2.3" bus2="82025985002086.1.2.3" linecode="33-31M_3" length=0.031567 units=km
New "Line.SMT_53072518" phases=3 bus1="82026005002086.1.2.3" bus2="82025995002086.1.2.3" linecode="33-31M_3" length=0.033182 units=km
New "Line.SMT_53072519" phases=3 bus1="82026015002086.1.2.3" bus2="82026005002086.1.2.3" linecode="33-31M_3" length=0.036612 units=km
New "Line.SMT_53072520" phases=3 bus1="82026025002086.1.2.3" bus2="82026015002086.1.2.3" linecode="33-31M_3" length=0.043982 units=km
New "Line.SMT_53072521" phases=3 bus1="82025035002086.1.2.3" bus2="82026025002086.1.2.3" linecode="33-31M_3" length=0.021859 units=km
New "Line.SMT_53072522" phases=3 bus1="82026375002086.1.2.3" bus2="82026385002086.1.2.3" linecode="33-31M_3" length=0.036311 units=km
New "Line.SMT_53072523" phases=3 bus1="82026685002086.1.2.3" bus2="82026705002086.1.2.3" linecode="33-31M_3" length=0.036498 units=km
New "Line.SMT_53072524" phases=3 bus1="82026915002086.1.2.3" bus2="82026925002086.1.2.3" linecode="33-31M_3" length=0.047137 units=km
New "Line.SMT_53072525" phases=3 bus1="82027165002086.1.2.3" bus2="82026915002086.1.2.3" linecode="33-31M_3" length=0.040102 units=km
New "Line.SMT_53072526" phases=3 bus1="82024995002086.1.2.3" bus2="82026965002086.1.2.3" linecode="33-31M_3" length=0.033729 units=km
New "Line.SMT_53072528" phases=3 bus1="82026965002086.1.2.3" bus2="82025005002086.1.2.3" linecode="33-31M_3" length=0.042172 units=km
New "Line.SMT_53072529" phases=3 bus1="82028375002086.1.2.3" bus2="82028365002086.1.2.3" linecode="33-31M_3" length=0.036742 units=km
New "Line.SMT_53072530" phases=3 bus1="82028385002086.1.2.3" bus2="82028375002086.1.2.3" linecode="33-31M_3" length=0.03501 units=km
New "Line.SMT_53072531" phases=3 bus1="82028395002086.1.2.3" bus2="82028385002086.1.2.3" linecode="33-31M_3" length=0.041773 units=km
New "Line.SMT_53072532" phases=3 bus1="82028405002086.1.2.3" bus2="82028395002086.1.2.3" linecode="33-31M_3" length=0.019124 units=km
New "Line.SMT_53072533" phases=3 bus1="82029135002086.1.2.3" bus2="82028315002086.1.2.3" linecode="33-31M_3" length=0.034169 units=km
New "Line.SMT_53072534" phases=3 bus1="82028315002086.1.2.3" bus2="82029145002086.1.2.3" linecode="33-31M_3" length=0.04326 units=km
New "Line.SMT_53072535" phases=3 bus1="82029145002086.1.2.3" bus2="82027655002086.1.2.3" linecode="33-31M_3" length=0.033007 units=km
New "Line.SMT_53072536" phases=3 bus1="82027655002086.1.2.3" bus2="82027665002086.1.2.3" linecode="33-31M_3" length=0.038426 units=km
New "Line.SMT_53072537" phases=3 bus1="82027665002086.1.2.3" bus2="82027685002086.1.2.3" linecode="33-31M_3" length=0.029969 units=km
New "Line.SMT_53072538" phases=3 bus1="82027685002086.1.2.3" bus2="82027695002086.1.2.3" linecode="33-31M_3" length=0.034754 units=km
New "Line.SMT_53072539" phases=3 bus1="82027695002086.1.2.3" bus2="82028405002086.1.2.3" linecode="33-31M_3" length=0.012173 units=km
New "Line.SMT_53072540" phases=3 bus1="82028405002086.1.2.3" bus2="82027705002086.1.2.3" linecode="33-31M_3" length=0.012809 units=km
New "Line.SMT_53072541" phases=3 bus1="82028405002086.1.2.3" bus2="82027715002086.1.2.3" linecode="33-31M_3" length=0.020429 units=km
New "Line.SMT_53072542" phases=3 bus1="82027715002086.1.2.3" bus2="82027725002086.1.2.3" linecode="33-31M_3" length=0.032078 units=km
New "Line.SMT_53072543" phases=3 bus1="82027725002086.1.2.3" bus2="82027735002086.1.2.3" linecode="33-31M_3" length=0.030298 units=km
New "Line.SMT_53072544" phases=3 bus1="82027145002086.1.2.3" bus2="82027155002086.1.2.3" linecode="33-31M_3" length=0.066704 units=km
New "Line.SMT_53072545" phases=3 bus1="82027135002086.1.2.3" bus2="82027145002086.1.2.3" linecode="33-31M_3" length=0.036412 units=km
New "Line.SMT_53072546" phases=3 bus1="82027155002086B.1.2.3" bus2="82027165002086.1.2.3" linecode="33-31M_3" length=0.014997 units=km
New "Line.SMT_53072547" phases=3 bus1="82027205002086.1.2.3" bus2="82027195002086.1.2.3" linecode="52-31M_3" length=0.042601 units=km
New "Line.SMT_53072548" phases=3 bus1="82027195002086.1.2.3" bus2="82027135002086.1.2.3" linecode="33-31M_3" length=0.036861 units=km
New "Line.SMT_53072549" phases=3 bus1="82026625002086.1.2.3" bus2="82026615002086.1.2.3" linecode="33-31M_3" length=0.038198 units=km
New "Line.SMT_53072550" phases=3 bus1="82026655002086.1.2.3" bus2="82026665002086.1.2.3" linecode="33-31M_3" length=0.054436 units=km
New "Line.SMT_53072551" phases=3 bus1="82026675002086.1.2.3" bus2="82026685002086.1.2.3" linecode="33-31M_3" length=0.045004 units=km
New "Line.SMT_53072552" phases=3 bus1="82026665002086B.1.2.3" bus2="82026675002086.1.2.3" linecode="33-31M_3" length=0.02791 units=km
New "Line.SMT_53072553" phases=3 bus1="82025735002086.1.2.3" bus2="82026655002086.1.2.3" linecode="33-31M_3" length=0.028958 units=km
New "Line.SMT_53072554" phases=3 bus1="82026655002086.1.2.3" bus2="82026645002086.1.2.3" linecode="33-31M_3" length=0.017593 units=km
New "Line.SMT_53072555" phases=3 bus1="82026645002086.1.2.3" bus2="82026635002086.1.2.3" linecode="33-31M_3" length=0.034601 units=km
New "Line.SMT_53072556" phases=3 bus1="82026635002086.1.2.3" bus2="82026625002086.1.2.3" linecode="33-31M_3" length=0.041053 units=km
New "Line.SMT_53072557" phases=3 bus1="88185395002086.1.2.3" bus2="82029245002086.1.2.3" linecode="33-31M_3" length=0.031743 units=km
New "Line.SMT_53072558" phases=3 bus1="82029245002086.1.2.3" bus2="82029255002086.1.2.3" linecode="33-31M_3" length=0.042727 units=km
New "Line.SMT_53072559" phases=3 bus1="82029255002086.1.2.3" bus2="82029275002086.1.2.3" linecode="33-31M_3" length=0.037501 units=km
New "Line.SMT_53072560" phases=3 bus1="82029275002086.1.2.3" bus2="82029285002086.1.2.3" linecode="33-31M_3" length=0.039138 units=km
New "Line.SMT_53072561" phases=3 bus1="82029285002086.1.2.3" bus2="82027755002086.1.2.3" linecode="33-31M_3" length=0.042069 units=km
New "Line.SMT_53072562" phases=3 bus1="82026615002086.1.2.3" bus2="82026605002086.1.2.3" linecode="33-31M_3" length=0.053375 units=km
New "Line.SMT_53072563" phases=3 bus1="82026605002086.1.2.3" bus2="82026595002086.1.2.3" linecode="33-31M_3" length=0.031647 units=km
New "Line.SMT_53072564" phases=3 bus1="82026595002086.1.2.3" bus2="82026585002086.1.2.3" linecode="33-31M_3" length=0.03075 units=km
New "Line.SMT_53072565" phases=3 bus1="82026585002086.1.2.3" bus2="82026575002086.1.2.3" linecode="33-31M_3" length=0.036796 units=km
New "Line.SMT_53072566" phases=3 bus1="82026575002086.1.2.3" bus2="82027205002086.1.2.3" linecode="33-31M_3" length=0.042993 units=km
New "Line.SMT_53072567" phases=3 bus1="82028845002086.1.2.3" bus2="82028855002086.1.2.3" linecode="33-31M_3" length=0.042582 units=km
New "Line.SMT_53072568" phases=3 bus1="82028865002086.1.2.3" bus2="82028845002086.1.2.3" linecode="33-31M_3" length=0.028795 units=km
New "Line.SMT_53072569" phases=3 bus1="82026405002086.1.2.3" bus2="82029325002086.1.2.3" linecode="33-31M_3" length=0.028282 units=km
New "Line.SMT_53072570" phases=3 bus1="82029325002086.1.2.3" bus2="82029335002086.1.2.3" linecode="33-31M_3" length=0.038429 units=km
New "Line.SMT_53072571" phases=3 bus1="82029335002086.1.2.3" bus2="82029345002086.1.2.3" linecode="33-31M_3" length=0.041637 units=km
New "Line.SMT_53072572" phases=3 bus1="82029345002086.1.2.3" bus2="82029355002086.1.2.3" linecode="33-31M_3" length=0.028648 units=km
New "Line.SMT_53072573" phases=3 bus1="82027755002086.1.2.3" bus2="82029705002086.1.2.3" linecode="33-31M_3" length=0.046259 units=km
New "Line.SMT_53072574" phases=3 bus1="82029705002086.1.2.3" bus2="82029725002086.1.2.3" linecode="33-31M_3" length=0.025759 units=km
New "Line.SMT_53072575" phases=3 bus1="82029725002086.1.2.3" bus2="82029135002086.1.2.3" linecode="33-31M_3" length=0.052166 units=km
New "Line.SMT_53072576" phases=3 bus1="82024945002086B.1.2.3" bus2="82024955002086.1.2.3" linecode="33-31M_3" length=0.031839 units=km
New "Line.SMT_53072577" phases=3 bus1="82026705002086.1.2.3" bus2="82030425002086.1.2.3" linecode="33-31M_3" length=0.045914 units=km
New "Line.SMT_53072578" phases=3 bus1="82030425002086.1.2.3" bus2="82028865002086.1.2.3" linecode="33-31M_3" length=0.038178 units=km
New "Line.SMT_53072579" phases=3 bus1="82034485002086.1.2.3" bus2="82034255002086.1.2.3" linecode="1-31M_3" length=0.032615 units=km
New "Line.SMT_53072580" phases=3 bus1="82036705002086.1.2.3" bus2="82036695002086.1.2.3" linecode="1-31M_3" length=0.034902 units=km
New "Line.SMT_53072581" phases=3 bus1="82036715002086.1.2.3" bus2="82036705002086.1.2.3" linecode="1-31M_3" length=0.047182 units=km
New "Line.SMT_53072582" phases=3 bus1="82036725002086.1.2.3" bus2="82036715002086.1.2.3" linecode="1-31M_3" length=0.029246 units=km
New "Line.SMT_53072583" phases=3 bus1="82036735002086.1.2.3" bus2="82036725002086.1.2.3" linecode="1-31M_3" length=0.037724 units=km
New "Line.SMT_53072584" phases=3 bus1="82036745002086.1.2.3" bus2="82036735002086.1.2.3" linecode="1-31M_3" length=0.016479 units=km
New "Line.SMT_53072585" phases=3 bus1="82036755002086.1.2.3" bus2="82036745002086.1.2.3" linecode="1-31M_3" length=0.027628 units=km
New "Line.SMT_53072586" phases=3 bus1="82036765002086.1.2.3" bus2="82036755002086.1.2.3" linecode="1-31M_3" length=0.052788 units=km
New "Line.SMT_53072587" phases=3 bus1="82036775002086.1.2.3" bus2="82036765002086.1.2.3" linecode="1-31M_3" length=0.032625 units=km
New "Line.SMT_53072588" phases=3 bus1="82036785002086.1.2.3" bus2="82036775002086.1.2.3" linecode="1-31M_3" length=0.031765 units=km
New "Line.SMT_53072589" phases=3 bus1="82036795002086.1.2.3" bus2="82036785002086.1.2.3" linecode="1-31M_3" length=0.019293 units=km
New "Line.SMT_53072591" phases=3 bus1="91074225002086.1.2.3" bus2="82024515002086.1.2.3" linecode="1-31M_3" length=0.017732 units=km
New "Line.SMT_53072592" phases=3 bus1="82033035002086.1.2.3" bus2="87711685002086.1.2.3" linecode="33-31M_3" length=0.033929 units=km
New "Line.SMT_53072593" phases=3 bus1="82033045002086.1.2.3" bus2="82033055002086.1.2.3" linecode="33-31M_3" length=0.035392 units=km
New "Line.SMT_53072594" phases=3 bus1="82031795002086.1.2.3" bus2="82030655002086.1.2.3" linecode="33-31M_3" length=0.050744 units=km
New "Line.SMT_53072595" phases=3 bus1="82031895002086.1.2.3" bus2="82031865002086.1.2.3" linecode="33-31M_3" length=0.026146 units=km
New "Line.SMT_53072597" phases=3 bus1="82031865002086.1.2.3" bus2="82031805002086.1.2.3" linecode="33-31M_3" length=0.04633 units=km
New "Line.SMT_53072598" phases=3 bus1="82035225002086B.1.2.3" bus2="82035235002086.1.2.3" linecode="29-31M_3" length=0.034782 units=km
New "Line.SMT_53072599" phases=3 bus1="82035235002086.1.2.3" bus2="82035245002086.1.2.3" linecode="29-31M_3" length=0.036138 units=km
New "Line.SMT_53072600" phases=3 bus1="82035245002086.1.2.3" bus2="82035275002086.1.2.3" linecode="29-31M_3" length=0.022856 units=km
New "Line.SMT_53072601" phases=3 bus1="82035275002086.1.2.3" bus2="82031955002086.1.2.3" linecode="29-31M_3" length=0.032497 units=km
New "Line.SMT_53072602" phases=3 bus1="82031955002086.1.2.3" bus2="82035255002086.1.2.3" linecode="29-31M_3" length=0.017383 units=km
New "Line.SMT_53072603" phases=3 bus1="82036265002086.1.2.3" bus2="82035225002086.1.2.3" linecode="33-31M_3" length=0.031716 units=km
New "Line.SMT_53072604" phases=3 bus1="82036265002086.1.2.3" bus2="82036255002086.1.2.3" linecode="33-31M_3" length=0.013608 units=km
New "Line.SMT_53072605" phases=3 bus1="82036255002086B.1.2.3" bus2="82036285002086.1.2.3" linecode="33-31M_3" length=0.025403 units=km
New "Line.SMT_53072606" phases=3 bus1="82036285002086.1.2.3" bus2="82036295002086.1.2.3" linecode="33-31M_3" length=0.021994 units=km
New "Line.SMT_53072607" phases=3 bus1="82036245002086.1.2.3" bus2="82036265002086.1.2.3" linecode="1-31M_3" length=0.014449 units=km
New "Line.SMT_53072608" phases=3 bus1="82036265002086.1.2.3" bus2="82036275002086.1.2.3" linecode="1-31M_3" length=0.033433 units=km
New "Line.SMT_53072609" phases=3 bus1="82036305002086.1.2.3" bus2="82036245002086.1.2.3" linecode="1-31M_3" length=0.037432 units=km
New "Line.SMT_53072610" phases=3 bus1="82036315002086.1.2.3" bus2="82036305002086.1.2.3" linecode="1-31M_3" length=0.040284 units=km
New "Line.SMT_53072611" phases=3 bus1="82035305002086.1.2.3" bus2="82036315002086.1.2.3" linecode="1-31M_3" length=0.038424 units=km
New "Line.SMT_53072612" phases=3 bus1="82035315002086.1.2.3" bus2="82035305002086.1.2.3" linecode="1-31M_3" length=0.035215 units=km
New "Line.SMT_53072613" phases=3 bus1="82035325002086.1.2.3" bus2="82035315002086.1.2.3" linecode="1-31M_3" length=0.04522 units=km
New "Line.SMT_53072614" phases=3 bus1="82035355002086.1.2.3" bus2="94329995002086.1.2.3" linecode="1-31M_3" length=0.006002 units=km
New "Line.SMT_53072615" phases=3 bus1="82035325002086.1.2.3" bus2="82035335002086.1.2.3" linecode="33-31M_3" length=0.021369 units=km
New "Line.SMT_53072616" phases=3 bus1="82035335002086.1.2.3" bus2="82035475002086.1.2.3" linecode="33-31M_3" length=0.028802 units=km
New "Line.SMT_53072617" phases=3 bus1="82035475002086.1.2.3" bus2="82035485002086.1.2.3" linecode="33-31M_3" length=0.043492 units=km
New "Line.SMT_53072618" phases=3 bus1="82034695002086B.1.2.3" bus2="94660975002086.1.2.3" linecode="35-14M_3" length=0.009693 units=km
New "Line.SMT_53072619" phases=3 bus1="82034705002086.1.2.3" bus2="82034695002086.1.2.3" linecode="1-31M_3" length=0.039716 units=km
New "Line.SMT_53072620" phases=3 bus1="82034685002086.1.2.3" bus2="82034705002086.1.2.3" linecode="1-31M_3" length=0.042894 units=km
New "Line.SMT_53072621" phases=3 bus1="82031065002086.1.2.3" bus2="82031075002086.1.2.3" linecode="33-31M_3" length=0.030642 units=km
New "Line.SMT_53072622" phases=3 bus1="82031075002086.1.2.3" bus2="82031085002086.1.2.3" linecode="33-31M_3" length=0.022865 units=km
New "Line.SMT_53072623" phases=3 bus1="82031415002086.1.2.3" bus2="82031405002086.1.2.3" linecode="33-31M_3" length=0.039928 units=km
New "Line.SMT_53072624" phases=3 bus1="82031425002086.1.2.3" bus2="82031415002086.1.2.3" linecode="33-31M_3" length=0.034758 units=km
New "Line.SMT_53072625" phases=3 bus1="82031445002086.1.2.3" bus2="82031065002086.1.2.3" linecode="33-31M_3" length=0.017849 units=km
New "Line.SMT_53072626" phases=3 bus1="82031495002086.1.2.3" bus2="82031425002086.1.2.3" linecode="33-31M_3" length=0.009146 units=km
New "Line.SMT_53072627" phases=3 bus1="82031495002086.1.2.3" bus2="82031435002086.1.2.3" linecode="33-31M_3" length=0.006646 units=km
New "Line.SMT_53072628" phases=3 bus1="82031085002086.1.2.3" bus2="82031495002086.1.2.3" linecode="33-31M_3" length=0.012356 units=km
New "Line.SMT_53072629" phases=3 bus1="82035255002086.1.2.3" bus2="82035265002086.1.2.3" linecode="29-31M_3" length=0.024711 units=km
New "Line.SMT_53072630" phases=3 bus1="82031495002086.1.2.3" bus2="82031095002086.1.2.3" linecode="33-31M_3" length=0.027532 units=km
New "Line.SMT_53072631" phases=3 bus1="82032935002086.1.2.3" bus2="82032945002086.1.2.3" linecode="33-31M_3" length=0.059505 units=km
New "Line.SMT_53072632" phases=3 bus1="82032965002086B.1.2.3" bus2="82032975002086.1.2.3" linecode="33-31M_3" length=0.027031 units=km
New "Line.SMT_53072633" phases=3 bus1="82032975002086.1.2.3" bus2="82032985002086.1.2.3" linecode="33-31M_3" length=0.034056 units=km
New "Line.SMT_53072634" phases=3 bus1="82032945002086.1.2.3" bus2="82033025002086.1.2.3" linecode="33-31M_3" length=0.01435 units=km
New "Line.SMT_53072635" phases=3 bus1="82033025002086.1.2.3" bus2="82033015002086.1.2.3" linecode="33-31M_3" length=0.029836 units=km
New "Line.SMT_53072636" phases=3 bus1="82033765002086.1.2.3" bus2="82036025002086.1.2.3" linecode="33-31M_3" length=0.026203 units=km
New "Line.SMT_53072637" phases=3 bus1="82036025002086.1.2.3" bus2="82036045002086.1.2.3" linecode="33-31M_3" length=0.037289 units=km
New "Line.SMT_53072638" phases=3 bus1="82035265002086.1.2.3" bus2="82036215002086.1.2.3" linecode="29-31M_3" length=0.030785 units=km
New "Line.SMT_53072639" phases=3 bus1="82033025002086.1.2.3" bus2="82032955002086.1.2.3" linecode="33-31M_3" length=0.006336 units=km
New "Line.SMT_53072640" phases=3 bus1="82033025002086.1.2.3" bus2="82032965002086.1.2.3" linecode="33-31M_3" length=0.012358 units=km
New "Line.SMT_53072641" phases=3 bus1="82033015002086.1.2.3" bus2="82033035002086.1.2.3" linecode="33-31M_3" length=0.027417 units=km
New "Line.SMT_53072643" phases=3 bus1="82033075002086.1.2.3" bus2="82033185002086.1.2.3" linecode="33-31M_3" length=0.042809 units=km
New "Line.SMT_53072644" phases=3 bus1="82033185002086B.1.2.3" bus2="95404035002086.1.2.3" linecode="33-31M_3" length=0.015566 units=km
New "Line.SMT_53072645" phases=3 bus1="82033335002086.1.2.3" bus2="82033325002086.1.2.3" linecode="33-31M_3" length=0.025751 units=km
New "Line.SMT_53072646" phases=3 bus1="82033195002086.1.2.3" bus2="82033335002086.1.2.3" linecode="33-31M_3" length=0.030872 units=km
New "Line.SMT_53072647" phases=3 bus1="82033325002086.1.2.3" bus2="82033345002086.1.2.3" linecode="33-31M_3" length=0.025706 units=km
New "Line.SMT_53072648" phases=3 bus1="82033345002086.1.2.3" bus2="82033355002086.1.2.3" linecode="33-31M_3" length=0.022569 units=km
New "Line.SMT_53072649" phases=3 bus1="82033355002086.1.2.3" bus2="82033395002086.1.2.3" linecode="33-31M_3" length=0.022414 units=km
New "Line.SMT_53072650" phases=3 bus1="82033395002086.1.2.3" bus2="82033405002086.1.2.3" linecode="33-31M_3" length=0.027706 units=km
New "Line.SMT_53072651" phases=3 bus1="82033405002086.1.2.3" bus2="82032045002086.1.2.3" linecode="33-31M_3" length=0.03879 units=km
New "Line.SMT_53072652" phases=3 bus1="82032045002086.1.2.3" bus2="87706645002086.1.2.3" linecode="33-31M_3" length=0.014434 units=km
New "Line.SMT_53072653" phases=3 bus1="82033075002086.1.2.3" bus2="82034125002086.1.2.3" linecode="33-31M_3" length=0.047091 units=km
New "Line.SMT_53072654" phases=3 bus1="82034125002086.1.2.3" bus2="82034135002086.1.2.3" linecode="33-31M_3" length=0.03104 units=km
New "Line.SMT_53072655" phases=3 bus1="82034135002086.1.2.3" bus2="82034145002086.1.2.3" linecode="33-31M_3" length=0.036916 units=km
New "Line.SMT_53072656" phases=3 bus1="82034145002086.1.2.3" bus2="82024945002086.1.2.3" linecode="33-31M_3" length=0.036399 units=km
New "Line.SMT_53072657" phases=3 bus1="82024955002086.1.2.3" bus2="82034155002086.1.2.3" linecode="33-31M_3" length=0.026826 units=km
New "Line.SMT_53072658" phases=3 bus1="82034155002086.1.2.3" bus2="82024965002086.1.2.3" linecode="33-31M_3" length=0.043504 units=km
New "Line.SMT_53072659" phases=3 bus1="82024965002086.1.2.3" bus2="82034185002086.1.2.3" linecode="33-31M_3" length=0.025645 units=km
New "Line.SMT_53072660" phases=3 bus1="82034185002086.1.2.3" bus2="82034195002086.1.2.3" linecode="33-31M_3" length=0.024711 units=km
New "Line.SMT_53072661" phases=3 bus1="82034195002086.1.2.3" bus2="82024995002086.1.2.3" linecode="33-31M_3" length=0.039997 units=km
New "Line.SMT_53072662" phases=3 bus1="82032075002086.1.2.3" bus2="82032345002086.1.2.3" linecode="33-31M_3" length=0.047081 units=km
New "Line.SMT_53072663" phases=3 bus1="82032345002086.1.2.3" bus2="82032495002086.1.2.3" linecode="33-31M_3" length=0.031348 units=km
New "Line.SMT_53072665" phases=3 bus1="82032635002086.1.2.3" bus2="82033435002086.1.2.3" linecode="33-31M_3" length=0.040865 units=km
New "Line.SMT_53072666" phases=3 bus1="82033775002086.1.2.3" bus2="82033765002086.1.2.3" linecode="33-31M_3" length=0.04534 units=km
New "Line.SMT_53072667" phases=3 bus1="82033775002086.1.2.3" bus2="82033785002086.1.2.3" linecode="1-31M_3" length=0.035225 units=km
New "Line.SMT_53072668" phases=3 bus1="82033785002086.1.2.3" bus2="82033795002086.1.2.3" linecode="1-31M_3" length=0.037013 units=km
New "Line.SMT_53072669" phases=3 bus1="82033795002086.1.2.3" bus2="82033805002086.1.2.3" linecode="1-31M_3" length=0.038567 units=km
New "Line.SMT_53072670" phases=3 bus1="82033805002086.1.2.3" bus2="82033815002086.1.2.3" linecode="1-31M_3" length=0.035442 units=km
New "Line.SMT_53072671" phases=3 bus1="82033815002086.1.2.3" bus2="88686205002086.1.2.3" linecode="1-31M_3" length=0.009253 units=km
New "Line.SMT_53072672" phases=3 bus1="82033835002086.1.2.3" bus2="82033865002086.1.2.3" linecode="1-31M_3" length=0.047468 units=km
New "Line.SMT_53072673" phases=3 bus1="82033865002086.1.2.3" bus2="82033875002086.1.2.3" linecode="1-31M_3" length=0.020062 units=km
New "Line.SMT_53072674" phases=3 bus1="82033875002086.1.2.3" bus2="82033895002086.1.2.3" linecode="1-31M_3" length=0.019554 units=km
New "Line.SMT_53072675" phases=3 bus1="82033895002086.1.2.3" bus2="88685615002086.1.2.3" linecode="1-31M_3" length=0.006814 units=km
New "Line.SMT_53072676" phases=3 bus1="82033915002086.1.2.3" bus2="82033925002086.1.2.3" linecode="1-31M_3" length=0.035283 units=km
New "Line.SMT_53072677" phases=3 bus1="82034025002086.1.2.3" bus2="82033775002086.1.2.3" linecode="1-31M_3" length=0.044894 units=km
New "Line.SMT_53072678" phases=3 bus1="82030655002086.1.2.3" bus2="82030775002086.1.2.3" linecode="33-31M_3" length=0.028248 units=km
...
